12
-230.624474802
C      -0.0000000      1.3883720      0.0000000
C      -1.2023660      0.6941860      0.0000000
C      -1.2023660      -0.6941860      0.0000000
C      0.0000000      -1.3883720      0.0000000
C      1.2023660      -0.6941860      0.0000000
C      1.2023660      0.6941860      0.0000000
H      -0.0000000      2.4615240      0.0000000
H      -2.1317430      1.2307620      0.0000000
H      -2.1317430      -1.2307620      0.0000000
H      0.0000000      -2.4615240      0.0000000
H      2.1317430      -1.2307620      0.0000000
H      2.1317430      1.2307620      0.0000000

